$ NASTRAN input file created by the Patran 2012 64-Bit input file
$ translator on April     16, 2016 at 16:17:59.
$ Direct Text Input for Nastran System Cell Section
$ Direct Text Input for File Management Section
$ Direct Text Input for Executive Control
$ Normal Modes Analysis, Database
SOL 103
CEND
$ Direct Text Input for Global Case Control Data
TITLE = MSC.Nastran job created on 16-Apr-16 at 15:11:13
ECHO = NONE
RESVEC = NO
SUBCASE 1
$ Subcase name : Default
   SUBTITLE=Default
   METHOD = 1
   SPC = 2
   VECTOR(SORT1,REAL)=ALL
   SPCFORCES(SORT1,REAL)=ALL
BEGIN BULK
$ Direct Text Input for Bulk Data
PARAM    POST    0
PARAM   PRTMAXIM YES
EIGRL    1                       10      0
$ Elements and Element Properties for region : plate
PSHELL   1       1      .00625   1               1
$ Pset: "plate" will be imported as: "pshell.1"
CTRIA3   1       1       35      158     34
CTRIA3   2       1       158     35      157
CTRIA3   3       1       157     35      36
CTRIA3   4       1       159     127     128
CTRIA3   5       1       127     159     126
CTRIA3   6       1       160     126     159
CTRIA3   7       1       161     180     160
CTRIA3   8       1       162     181     161
CTRIA3   9       1       163     246     162
CTRIA3   10      1       164     182     163
CTRIA3   11      1       165     183     164
CTRIA3   12      1       166     184     165
CTRIA3   13      1       167     185     166
CTRIA3   14      1       168     186     167
CTRIA3   15      1       169     187     168
CTRIA3   16      1       170     188     169
CTRIA3   17      1       171     189     170
CTRIA3   18      1       172     190     171
CTRIA3   19      1       173     191     172
CTRIA3   20      1       174     192     173
$ ... 2502 like lines cut
$ Elements and Element Properties for region : stiffener
PBARL    2       1               BAR
        .00406  .0224
$ Pset: "stiffener" will be imported as: "pbarl.2"
CBAR     2523    2       128     159     0.      0.     1.
                         0.      0.     .014325  0.      0.     .014325
CBAR     2524    2       159     160     0.      0.     1.
                         0.      0.     .014325  0.      0.     .014325
CBAR     2525    2       160     161     0.      0.     1.
                         0.      0.     .014325  0.      0.     .014325
CBAR     2526    2       161     162     0.      0.     1.
                         0.      0.     .014325  0.      0.     .014325
CBAR     2527    2       162     163     0.      0.     1.
                         0.      0.     .014325  0.      0.     .014325
CBAR     2528    2       163     164     0.      0.     1.
                         0.      0.     .014325  0.      0.     .014325
CBAR     2529    2       164     165     0.      0.     1.
                         0.      0.     .014325  0.      0.     .014325
CBAR     2530    2       165     166     0.      0.     1.
                         0.      0.     .014325  0.      0.     .014325
CBAR     2531    2       166     167     0.      0.     1.
                         0.      0.     .014325  0.      0.     .014325
CBAR     2532    2       167     168     0.      0.     1.
                         0.      0.     .014325  0.      0.     .014325
CBAR     2533    2       168     169     0.      0.     1.
                         0.      0.     .014325  0.      0.     .014325
CBAR     2534    2       169     170     0.      0.     1.
                         0.      0.     .014325  0.      0.     .014325
CBAR     2535    2       170     171     0.      0.     1.
                         0.      0.     .014325  0.      0.     .014325
CBAR     2536    2       171     172     0.      0.     1.
                         0.      0.     .014325  0.      0.     .014325
CBAR     2537    2       172     173     0.      0.     1.
                         0.      0.     .014325  0.      0.     .014325
CBAR     2538    2       173     174     0.      0.     1.
                         0.      0.     .014325  0.      0.     .014325
CBAR     2539    2       174     175     0.      0.     1.
                         0.      0.     .014325  0.      0.     .014325
CBAR     2540    2       175     176     0.      0.     1.
                         0.      0.     .014325  0.      0.     .014325
CBAR     2541    2       176     177     0.      0.     1.
                         0.      0.     .014325  0.      0.     .014325
CBAR     2542    2       177     178     0.      0.     1.
                         0.      0.     .014325  0.      0.     .014325
$ ... 56 like lines cut
$ Referenced Material Records
$ Material Record : mat
$ Description of Material : Date: 16-Apr-16           Time: 15:13:13
MAT1     1      7.3+10          .33     2837.
$ Nodes of the Entire Model
GRID     1               0.      0.      0.
GRID     2              .6069    0.      0.
GRID     3              .02023   0.      0.
GRID     4              .04046   0.      0.
GRID     5              .06069   0.      0.
GRID     6              .08092   0.      0.
GRID     7              .10115   0.      0.
GRID     8              .12138   0.      0.
GRID     9              .14161   0.      0.
GRID     10             .16184   0.      0.
GRID     11             .18207   0.      0.
GRID     12             .2023    0.      0.
GRID     13             .22253   0.      0.
GRID     14             .24276   0.      0.
GRID     15             .26299   0.      0.
GRID     16             .28322   0.      0.
GRID     17             .30345   0.      0.
GRID     18             .32368   0.      0.
GRID     19             .34391   0.      0.
GRID     20             .36414   0.      0.
$ ... 1308 like lines cut
$ Loads for Load Case : Default
SPCADD   2       1
$ Displacement Constraints of Load Set : ssss
SPC1     1       123     1       THRU    132
$ Referenced Coordinate Frames
ENDDATA 88b527ad
