$ NASTRAN input file created by the Patran 2016 input file translator on
$  March     12, 2018 at 21:42:13.
$ Direct Text Input for Nastran System Cell Section
$ Linear Static Analysis, Database
SOL 105
CEND
TITLE = MSC.NASTRAN JOB CREATED ON 19-DEC-17 AT 14:52:38
ECHO = NONE
SUBCASE 1
$ Subcase name : Default
   SUBTITLE=Default
   SPC = 2
   LOAD = 1
   DISPLACEMENT(SORT1,REAL)=ALL
 $  SPCFORCES(SORT1,REAL)=ALL
   STRESS(SORT1,REAL,VONMISES,BILIN)=ALL
SUBCASE 2
$ Subcase name : initial_disp_deltaU
   SUBTITLE=initial_disp_deltaU
   SPC = 22
   METHOD = 10
   VECTOR(SORT1,REAL)=ALL
 $  SPCFORCES(SORT1,REAL)=ALL
   STATSUB = 1
   
BEGIN BULK
param,grdpnt,0
PARAM    POST    0
PARAM   PRTMAXIM YES
$1......2.......3.......4.......5.......6.......7.......8.......9.......
EIGRL   10                      10      0                       MAX
$ Elements and Element Properties for region : pcomp.1
$ Composite Property Reference Material: pcomp.1
$ Composite Material Description :
include 'GRID.dat'
include 'CQUAD4.dat'
include 'LV_VAT_fiber_straight.dat'
$  include 'square_SPC1_para.dat'
   
$1......2.......3.......4.......5.......6.......7.......8.......9.......             
$ PBEAM   3011    778     1.0322-5 8.88-115.038-14        2.653-12          
$ PBEAM   3001    778     2.0710-51.787-107.149-12        2.136-11          
$1......2.......3.......4.......5.......6.......7.......8.......9.......
MAT8     777    1.81+11 1.027+10 .280   7.17+9  4.00+9  4.00+9    1800.
MAT1     778    1.81+11 7.17+9          1800.

include 'stiffener_1.dat'
include 'stiffener_2.dat'
$1......2.......3.......4.......5.......6.......7.......8.......9.......   
$PBEAM   101     778     1.0322-5 8.88-115.038-14        2.653-12          
$ PBEAM   102     778     2.0710-51.787-107.149-12        2.136-11 

$1......2.......3.......4.......5.......6.......7.......8.......9.......   
$ PBEAM,PID,MID,A,I1,I2,I12,J,NSM
PBEAM,   101 ,    778,     5.1775-6,1.11696-11,4.4678e-13 ,   ,  1.33486-12  
PBEAM,   102 ,    778,     5.1775-6,1.11696-11,4.4678e-13 ,   ,  1.33486-12  
PBEAM,   112 ,    778,     5.1775-6,1.11696-11,4.4678e-10 ,   ,  1.33486-12  

$ Dummy Force Required to Activate the Following Enforced Displacements
$1......2.......3.......4.......5.......6.......7.......8.......9.......        
SPCADD   2       52      53       64      65      69 
$    11
$		 69       
		 $11
INCLUDE 'square_SPC1_fixed_ws.dat'
$1......2.......3.......4.......5.......6.......7.......8.......9.......     
FORCE    1        553            0.     .57735  .57735  .57735
include 'square_SPCD_LHS_u.dat'
$include 'square_SPCD_LHS_v.dat'


$1......2.......3.......4.......5.......6.......7.......8.......9.......     
FORCE    1       2313            0.     .57735  .57735  .57735
include 'square_SPCD_RHS_u.dat'
$include 'square_SPCD_RHS_v.dat'


SPC1          64       2     953     954     955     956     957     958
             959     960     961     962     963     964     965     966
             967     968     969     970     971     972     973    1754
            1755    1756    1757    1758    1759    1760    1761    1762
            1763    1764    1765    1766    1767    1768    1769    1770
            1771    1772    1773    2713    2714    2715    2716    2717
            2718    2719    2720    2721    2722    2723    2724    2725
            2726    2727    2728    2729    2730    2731    2732    2733
            3495    3496    3497    3498    3499    3500    3501    3502
            3503    3504    3505    3506    3507    3508    3509    3510
            3511    3512    3513
			
SPC1          65       2    4453    4454    4455    4456    4457    4458
            4459    4460    4461    4462    4463    4464    4465    4466
            4467    4468    4469    4470    4471    4472    4473    5234
            5235    5236    5237    5238    5239    5240    5241    5242
            5243    5244    5245    5246    5247    5248    5249    5250
            5251    5252    5253    6180    6181    6182    6183    6184
            6185    6186    6187    6188    6189    6190    6191    6192
            6193    6194    6195    6196    6197    6198    6199    6200
            6942    6943    6944    6945    6946    6947    6948    6949
            6950    6951    6952    6953    6954    6955    6956    6957
            6958    6959    6960       			
			
$1......2.......3.......4.......5.......6.......7.......8.......9.......     
$FORCE    1       2551           0.      .57735  .57735  .57735
$include 'square_SPCD_BHS_u.dat'
$include 'square_SPCD_BHS_v.dat'

$1......2.......3.......4.......5.......6.......7.......8.......9.......     

$FORCE    1        652            0.     .57735  .57735  .57735
$include 'square_SPCD_THS_u.dat'
$include 'square_SPCD_THS_v.dat'
$$$
 
$1......2.......3.......4.......5.......6.......7.......8.......9.......    
$ SPC1          72     123     1379 
 
SPCADD   22      79       
$ Displacement Constraints of Load Set : mid
INCLUDE 'square_SPC1_fixed_uvw.dat'

ENDDATA ef4b7c74
