$ MSC.Nastran input file created on October   16, 2021 at 17:24:27 by
$ Patran 2019
$ Buckling Analysis, Database
$ Direct Text Input for Bulk Data
$ Elements and Element Properties for region : ss
PSHELL   1       1      .1       1               1
$ Pset: "ss" will be imported as: "pshell.1"
CQUAD4   1       1       1       2       25      26
CQUAD4   2       1       2       3       23      25
CQUAD4   3       1       3       4       24      23
CQUAD4   4       1       4       5       21      24
CQUAD4   5       1       5       6       22      21
CQUAD4   6       1       6       7       19      22
CQUAD4   7       1       7       8       20      19
CQUAD4   8       1       8       9       17      20
CQUAD4   9       1       9       10      18      17
CQUAD4   10      1       10      11      14      18
CQUAD4   11      1       11      12      15      14
CQUAD4   12      1       12      13      16      15
CQUAD4   13      1       26      25      38      39
CQUAD4   14      1       25      23      37      38
CQUAD4   15      1       23      24      36      37
CQUAD4   16      1       24      21      35      36
CQUAD4   17      1       21      22      34      35
CQUAD4   18      1       22      19      33      34
CQUAD4   19      1       19      20      32      33
CQUAD4   20      1       20      17      31      32
$ ... 6700 like lines cut
$ Referenced Material Records
$ Material Record : al
$ Description of Material : Date: 06-Sep-21           Time: 00:29:51
MAT1     1      7.+9            .3      2700.
$ Nodes of the Entire Model
GRID     1              2.5088-9.075     0.
GRID     2              2.5088-9.0721222 0.
GRID     3              2.5088-9.0694203 0.
GRID     4              2.5088-9.0668833 0.
GRID     5              2.5088-9.0645013 0.
GRID     6              2.5088-9.0622647 0.
GRID     7              2.5088-9.0601647 0.
GRID     8              2.5088-9.0581930 0.
GRID     9              2.5088-9.0563416 0.
GRID     10             2.5088-9.0546034 0.
GRID     11             2.5088-9.0529713 0.
GRID     12             2.5088-9.0514388 0.
GRID     13             2.5088-9.05      0.
GRID     14             .0021453.0529370 0.
GRID     15             .0020439.0514026 0.
GRID     16             .0019500.0499619 0.
GRID     17             .0023728.0563120 0.
GRID     18             .0022546.0545713 0.
GRID     19             .0026387.0601408 0.
GRID     20             .0025005.0581661 0.
$ ... 6940 like lines cut
$ Loads for Load Case : Default
$ Referenced Coordinate Frames
