$ NASTRAN input file created by the Patran 2012 64-Bit input file
$ translator on April     16, 2016 at 15:17:57.
$ Direct Text Input for Nastran System Cell Section
$ Direct Text Input for File Management Section
$ Direct Text Input for Executive Control
$ Normal Modes Analysis, Database
SOL 103
CEND
$ Direct Text Input for Global Case Control Data
TITLE = MSC.Nastran job created on 16-Apr-16 at 15:11:13
ECHO = NONE
RESVEC = NO
SUBCASE 1
$ Subcase name : Default
   SUBTITLE=Default
   METHOD = 1
   SPC = 2
   VECTOR(SORT1,REAL)=ALL
   SPCFORCES(SORT1,REAL)=ALL
BEGIN BULK
$ Direct Text Input for Bulk Data
PARAM    POST    0
PARAM   PRTMAXIM YES
EIGRL    1                       10      0
$ Elements and Element Properties for region : plate
PSHELL   1       1      .00625   1               1
$ Pset: "plate" will be imported as: "pshell.1"
CTRIA3   1       1       68      66      32
CTRIA3   2       1       69      173     68
CTRIA3   3       1       70      174     69
CTRIA3   4       1       71      175     70
CTRIA3   5       1       72      176     71
CTRIA3   6       1       73      177     72
CTRIA3   7       1       74      178     73
CTRIA3   8       1       75      179     74
CTRIA3   9       1       76      180     75
CTRIA3   10      1       77      181     76
CTRIA3   11      1       78      182     77
CTRIA3   12      1       79      183     78
CTRIA3   13      1       80      184     79
CTRIA3   14      1       81      185     80
CTRIA3   15      1       82      186     81
CTRIA3   16      1       83      187     82
CTRIA3   17      1       84      188     83
CTRIA3   18      1       85      189     84
CTRIA3   19      1       86      190     85
CTRIA3   20      1       87      191     86
$ ... 2512 like lines cut
$ Elements and Element Properties for region : stiffener
PBARL    2       1               BAR
        .00406  .0224
$ Pset: "stiffener" will be imported as: "pbarl.2"
CBAR     2533    2       107     131     0.      0.     1.
                         0.      0.     .014325  0.      0.     .014325
CBAR     2534    2       131     132     0.      0.     1.
                         0.      0.     .014325  0.      0.     .014325
CBAR     2535    2       132     133     0.      0.     1.
                         0.      0.     .014325  0.      0.     .014325
CBAR     2536    2       133     134     0.      0.     1.
                         0.      0.     .014325  0.      0.     .014325
CBAR     2537    2       134     135     0.      0.     1.
                         0.      0.     .014325  0.      0.     .014325
CBAR     2538    2       135     136     0.      0.     1.
                         0.      0.     .014325  0.      0.     .014325
CBAR     2539    2       136     137     0.      0.     1.
                         0.      0.     .014325  0.      0.     .014325
CBAR     2540    2       137     138     0.      0.     1.
                         0.      0.     .014325  0.      0.     .014325
CBAR     2541    2       138     139     0.      0.     1.
                         0.      0.     .014325  0.      0.     .014325
CBAR     2542    2       139     140     0.      0.     1.
                         0.      0.     .014325  0.      0.     .014325
CBAR     2543    2       140     141     0.      0.     1.
                         0.      0.     .014325  0.      0.     .014325
CBAR     2544    2       141     142     0.      0.     1.
                         0.      0.     .014325  0.      0.     .014325
CBAR     2545    2       142     143     0.      0.     1.
                         0.      0.     .014325  0.      0.     .014325
CBAR     2546    2       143     144     0.      0.     1.
                         0.      0.     .014325  0.      0.     .014325
CBAR     2547    2       144     145     0.      0.     1.
                         0.      0.     .014325  0.      0.     .014325
CBAR     2548    2       145     146     0.      0.     1.
                         0.      0.     .014325  0.      0.     .014325
CBAR     2549    2       146     147     0.      0.     1.
                         0.      0.     .014325  0.      0.     .014325
CBAR     2550    2       147     148     0.      0.     1.
                         0.      0.     .014325  0.      0.     .014325
CBAR     2551    2       148     149     0.      0.     1.
                         0.      0.     .014325  0.      0.     .014325
CBAR     2552    2       149     150     0.      0.     1.
                         0.      0.     .014325  0.      0.     .014325
$ ... 46 like lines cut
$ Referenced Material Records
$ Material Record : mat
$ Description of Material : Date: 16-Apr-16           Time: 15:13:13
MAT1     1      7.3+10          .33     2837.
$ Nodes of the Entire Model
GRID     1               0.      0.      0.
GRID     2              .6069    0.      0.
GRID     3              .02023   0.      0.
GRID     4              .04046   0.      0.
GRID     5              .06069   0.      0.
GRID     6              .08092   0.      0.
GRID     7              .10115   0.      0.
GRID     8              .12138   0.      0.
GRID     9              .14161   0.      0.
GRID     10             .16184   0.      0.
GRID     11             .18207   0.      0.
GRID     12             .2023    0.      0.
GRID     13             .22253   0.      0.
GRID     14             .24276   0.      0.
GRID     15             .26299   0.      0.
GRID     16             .28322   0.      0.
GRID     17             .30345   0.      0.
GRID     18             .32368   0.      0.
GRID     19             .34391   0.      0.
GRID     20             .36414   0.      0.
$ ... 1312 like lines cut
$ Loads for Load Case : Default
SPCADD   2       1
$ Displacement Constraints of Load Set : ssss
SPC1     1       123     1       THRU    130
$ Referenced Coordinate Frames
ENDDATA 544b1167
