$ NASTRAN input file created by the Patran 2016 input file translator on
$  March     12, 2018 at 21:42:13.
$ Direct Text Input for Nastran System Cell Section
$ Linear Static Analysis, Database
SOL 105
CEND
TITLE = MSC.NASTRAN JOB CREATED ON 19-DEC-17 AT 14:52:38
ECHO = NONE
SUBCASE 1
$ Subcase name : Default
   SUBTITLE=Default
   SPC = 2
   LOAD = 1
  $ DISPLACEMENT(SORT1,REAL)=ALL
 $  SPCFORCES(SORT1,REAL)=ALL
  $ STRESS(SORT1,REAL,VONMISES,BILIN)=ALL
SUBCASE 2
$ Subcase name : initial_disp_deltaU
   SUBTITLE=initial_disp_deltaU
   SPC = 22
   METHOD = 10
  $ VECTOR(SORT1,REAL)=ALL
 $  SPCFORCES(SORT1,REAL)=ALL
   STATSUB = 1
   
BEGIN BULK
param,grdpnt,0
PARAM    POST    0
PARAM   PRTMAXIM YES
EIGRL   10                      10      0                       MAX
MDLPRM,OFFDEF,1
$ Elements and Element Properties for region : pcomp.1
$ Composite Property Reference Material: pcomp.1
$ Composite Material Description :
include 'square_grid_para.dat'
include 'square_elements_para.dat'
include 'NLV_VAT_fiber.dat'
include 'square_SPC1_para.dat'

include 'stiffeners_con_1.bdf'
$include 'stiffener_square_elements_para.dat'
$

$ include 'stiffener_elements_ecc_fine.dat'
$include 'stiffener_grid_para2.dat'
$include 'stiffener_square_elements_para2.dat'
$ include 'stiffener_beam_element_offset_half_height1.dat'
$ include 'stiffener_beam_element_offset_half_height2.dat'
$ ####  ======= PCOMP for VAT=== Elem#99  ============== ##########
$1......2.......3.......4.......5.......6.......7.......8.......9.......
$ PCOMP     93333                        
$              7770.0001270.000   YES
$              7770.0001270.000   YES
$              7770.0001270.000   YES
$              7770.0001270.000   YES
$              7770.0001270.000   YES
$              7770.0001270.000   YES
$              7770.0001270.000   YES
$              7770.0001270.000   YES
$              7770.0001270.000   YES
$              7770.0001270.000   YES
$              7770.0001270.000   YES
$              7770.0001270.000   YES
PCOMP     33333                        
             7771.016-3 0.000   YES     
$1......2.......3.......4.......5.......6.......7.......8.......9.......             
PBEAM   3011    778     1.0322-5 8.88-115.038-14        2.653-12          
$ PBEAM      1    778     2.0710-51.787-107.149-12        2.136-11          
$ I2 = Mat.E2*I22/Mat.E1 from the code
PBEAM,1,778,2.0710195-05,1.787134-10,4.056103-13,,2.13574-11   
$1......2.......3.......4.......5.......6.......7.......8.......9.......
MAT8     777    1.81+11 1.027+10 .280   7.17+9  4.00+9  4.00+9    1800.
MAT1     778    1.81+11 7.17+9          1800.
SPCADD   22      49       

$ Dummy Force Required to Activate the Following Enforced Displacements
$1......2.......3.......4.......5.......6.......7.......8.......9.......        
SPCADD   2      1       52       53      62      63     69
FORCE    1        1              0.     .57735  .57735  .57735
FORCE    1        2              0.     .57735  .57735  .57735
include 'square_SPCD_LHS.dat'
include 'square_SPCD_RHS.dat'
INCLUDE 'square_SPC1_bot.dat'
INCLUDE 'square_SPC1_top.dat'
INCLUDE 'square_SPC1_fixed_w.dat'
ENDDATA ef4b7c74
